VERSION 18
*TRNSED
*******************************************************************************
*** TRNSYS input file (deck) generated by TrnsysStudio
*** on Friday, March 29, 2024 at 15:09
*** from TrnsysStudio project: C:\Users\ajp2\OneDrive - NIST\EDrive\EDrive (1)\IA Project\reports\TRNSYS Model\for github\TSIM\TSIM.tpf
*** 
*** If you edit this file, use the File/Import TRNSYS Input File function in 
*** TrnsysStudio to update the project. 
*** 
*** If you have problems, questions or suggestions please contact your local 
*** TRNSYS distributor or mailto:software@cstb.fr 
*** 
*******************************************************************************

*|<BACKGROUND> WHITE
*|<COLOR1> RED
*|<SIZE1> 14
*|<ALIGN1> CENTER
*|<STYLE1> ITALIC BOLD
 
*|[HEADER|
*|*TRNSYS 17
*|<STYLE1> BOLD
*|<COLOR1> NAVY
*|<SIZE1> 12
*|* TRNSYS input file: TSIM.dck
*|* TrnsysStudio Project: C:\Users\ajp2\OneDrive - NIST\EDrive\EDrive (1)\IA Project\reports\TRNSYS Model\for github\TSIM\TSIM.tpf
*|*generated by TrnsysStudio, Friday, March 29, 2024 at 15:09
*|*
*|]
 
*|<COLOR1> RED
*|<ALIGN1> LEFT

*******************************************************************************
*** Units 
*******************************************************************************

*******************************************************************************
*** Control cards
*******************************************************************************
* START, STOP and STEP
*|[SIMPAR|Simulation Parameters
EQUATIONS 5
I_MONTH=0
*|<Month of the simulation                    |C:\TRNSYS18\Exe\Month1.dat|1|2|2
I_DAY=1
*|Day of Month for Simulation Start           |||0|1|1|31|3
I_LENGTH=1
*|<Length of Simulation                       |C:\TRNSYS18\Exe\Length.dat|2|1|4
START=I_MONTH+24*(I_DAY-1)
STOP=START+I_LENGTH*24
EQUATIONS 1
STEP=1/60
*|Timestep |hours|hours|0|1|0.0000277777778|10000.00000|1000
*|]
SIMULATION 	 START	 STOP	 STEP	! Start time	End time	Time step
TOLERANCES 0.01 0.01			! Integration	 Convergence
LIMITS 30 30000 30				! Max iterations	Max warnings	Trace limit
DFQ 1					! TRNSYS numerical integration solver method
WIDTH 80				! TRNSYS output file width, number of characters
LIST 					! NOLIST statement
MAP 					! MAP statement
SOLVER 0 1 1				! Solver statement	Minimum relaxation factor	Maximum relaxation factor
NAN_CHECK 1				! Nan DEBUG statement
OVERWRITE_CHECK 1			! Overwrite DEBUG statement
TIME_REPORT 1			! enable time report statement
EQSOLVER 0				! EQUATION SOLVER statement
ETRACE START STOP			! EQUATION TRACE statement

* User defined CONSTANTS 
*$USER_CONSTANTS
EQUATIONS 1
nPlots = (STOP-START)/168.
*$USER_CONSTANTS_END


* Model "after zones mixer-2" (Type 648)
* 

*|*
*|* *** Model after zones mixer-2 (Type 648, Unit 105)
*|*
CONSTANTS 2
*|*PARAMETERS																							VALUES			UNITS
HUMIDITY=2
*|Humidity Mode                           |-|-|0|1|1|2.000|1000
NUMBEROF=2
*|Number of Inlet Ports                   |-|-|0|1|1|100.000|1000
CONSTANTS 5
*|*INPUTS																							VALUES			UNITS
INLETAIR=50.
*|Inlet Air % Relative Humidity-1         |% (base 100)|% (base 100)|0|1|0.|100.000|1000
INLETAIR1=1.
*|Inlet Air Pressure-1                    |atm|atm|0|1|0.|1000000.00000|1000
INLETAIR2=50.
*|Inlet Air % Relative Humidity-2         |% (base 100)|% (base 100)|0|1|0.|100.000|1000
INLETAIR3=1.
*|Inlet Air Pressure-2                    |atm|atm|0|1|0.|1000000.00000|1000
AIRSIDEP=0.0
*|Air-Side Pressure Drop                  |atm|atm|0|1|0.|1000000.00000|1000

UNIT 105 TYPE 648	 after zones mixer-2
*$UNIT_NAME after zones mixer-2
*$MODEL .\Hydronics Library (TESS)\Valves\Mixing Valve (100 Ports)\Air\Type648.tmf
*$POSITION 2691 554
*$LAYER AHU1 # 
*$# Return Plenum (Air Diverting Valve)
PARAMETERS 2
HUMIDITY		! 1 Humidity Mode
NUMBEROF		! 2 Number of Inlet Ports
INPUTS 11
86,23 		! callMatlab:T_z1_ahu2 ->Inlet Air Temperature-1
86,25 		! callMatlab:w_z1_ahu2 ->Inlet Air Humidity Ratio-1
0,0		! [unconnected] Inlet Air % Relative Humidity-1
Mass_Flow_VAV1		! Mass Flow Conversions for air-2:Mass_Flow_VAV1 ->Inlet Air Flowrate-1
0,0		! [unconnected] Inlet Air Pressure-1
86,30 		! callMatlab:T_z2_ahu2 ->Inlet Air Temperature-2
86,32 		! callMatlab:w_z2_ahu2 ->Inlet Air Humidity Ratio-2
0,0		! [unconnected] Inlet Air % Relative Humidity-2
Mass_Flow_VAV2		! Mass Flow Conversions for air-2:Mass_Flow_VAV2 ->Inlet Air Flowrate-2
0,0		! [unconnected] Inlet Air Pressure-2
0,0		! [unconnected] Air-Side Pressure Drop
*** INITIAL INPUT VALUES
20.0 0.008 INLETAIR 1000.0 INLETAIR1 20.0 0.008 INLETAIR2 1000.0 INLETAIR3
AIRSIDEP 
*------------------------------------------------------------------------------

* Model "Damper Position D15" (Type 1915)
* 

*|*
*|* *** Model Damper Position D15 (Type 1915, Unit 106)
*|*
CONSTANTS 6
*|*PARAMETERS																							VALUES			UNITS
LOWTEMPD=0
*|Low Temp Diff Condition                 |deltaC|deltaC|0|1|-1000000.00000|1000000.00000|1000
LOWDAMPE=20
*|Low Damper Position                     |-|-|0|1|-1000000.00000|1000000.00000|1000
HIGHTEMP=1
*|High Temp Diff Condition                |deltaC|deltaC|0|1|-1000000.00000|1000000.00000|1000
HIGHDAMP=100
*|High Damper Position                    |-|-|0|1|-1000000.00000|1000000.00000|1000
MODE=1
*|Mode                                    |-|-|0|1|-1000000.00000|1000000.00000|1000
TOLERANC=0.5
*|tolerance                               |-|-|0|1|-1000000.00000|1000000.00000|1000
CONSTANTS 4
*|*INPUTS																							VALUES			UNITS
TEMPNA=0
*|Temp NA                                 |-|-|0|1|-1000000.00000|1000000.00000|1000
SETPOINT=0
*|Setpoint NA                             |-|-|0|1|-1000000.00000|1000000.00000|1000
HEATINGS=0
*|heating signal Z1                       |-|-|0|1|-1000000.00000|1000000.00000|1000
COOLINGS=1
*|cooling signal Z1                       |-|-|0|1|-1000000.00000|1000000.00000|1000

UNIT 106 TYPE 1915	 Damper Position D15
*$UNIT_NAME Damper Position D15
*$MODEL \TRNSYS18\MyTypes\Damper Position Based on TYPE 1250.tmf
*$POSITION 1961 138
*$LAYER AHU1 # 
PARAMETERS 6
LOWTEMPD		! 1 Low Temp Diff Condition
LOWDAMPE		! 2 Low Damper Position
HIGHTEMP		! 3 High Temp Diff Condition
HIGHDAMP		! 4 High Damper Position
MODE		! 5 Mode
TOLERANC		! 6 tolerance
INPUTS 6
86,23 		! callMatlab:T_z1_ahu2 ->Temp Z1 Reset
86,57 		! callMatlab:Tz1SP ->Setpoint Z1 Reset
0,0		! [unconnected] Temp NA
0,0		! [unconnected] Setpoint NA
0,0		! [unconnected] heating signal Z1
0,0		! [unconnected] cooling signal Z1
*** INITIAL INPUT VALUES
4 20 TEMPNA SETPOINT HEATINGS COOLINGS 
*------------------------------------------------------------------------------

* Model "Damper Position 16" (Type 1915)
* 

*|*
*|* *** Model Damper Position 16 (Type 1915, Unit 107)
*|*
CONSTANTS 6
*|*PARAMETERS																							VALUES			UNITS
LOWTEMPD1=0
*|Low Temp Diff Condition                 |deltaC|deltaC|0|1|-1000000.00000|1000000.00000|1000
LOWDAMPE1=20
*|Low Damper Position                     |-|-|0|1|-1000000.00000|1000000.00000|1000
HIGHTEMP1=1
*|High Temp Diff Condition                |deltaC|deltaC|0|1|-1000000.00000|1000000.00000|1000
HIGHDAMP1=100
*|High Damper Position                    |-|-|0|1|-1000000.00000|1000000.00000|1000
MODE1=1
*|Mode                                    |-|-|0|1|-1000000.00000|1000000.00000|1000
TOLERANC1=0.5
*|tolerance                               |-|-|0|1|-1000000.00000|1000000.00000|1000
CONSTANTS 4
*|*INPUTS																							VALUES			UNITS
TEMPZNA=0
*|Temp Z NA                               |-|-|0|1|-1000000.00000|1000000.00000|1000
SETPOINT1=0
*|Setpoint Z NA                           |-|-|0|1|-1000000.00000|1000000.00000|1000
HEATINGS1=0
*|heating signal 2                        |-|-|0|1|-1000000.00000|1000000.00000|1000
COOLINGS1=1
*|cooling signal 2                        |-|-|0|1|-1000000.00000|1000000.00000|1000

UNIT 107 TYPE 1915	 Damper Position 16
*$UNIT_NAME Damper Position 16
*$MODEL \TRNSYS18\MyTypes\Damper Position Based on TYPE 1250.tmf
*$POSITION 2559 138
*$LAYER AHU1 # 
PARAMETERS 6
LOWTEMPD1		! 1 Low Temp Diff Condition
LOWDAMPE1		! 2 Low Damper Position
HIGHTEMP1		! 3 High Temp Diff Condition
HIGHDAMP1		! 4 High Damper Position
MODE1		! 5 Mode
TOLERANC1		! 6 tolerance
INPUTS 6
86,30 		! callMatlab:T_z2_ahu2 ->Temp Z2 Reset
86,58 		! callMatlab:Tz2SP ->Setpoint Z2 Reset
0,0		! [unconnected] Temp Z NA
0,0		! [unconnected] Setpoint Z NA
0,0		! [unconnected] heating signal 2
0,0		! [unconnected] cooling signal 2
*** INITIAL INPUT VALUES
4 20 TEMPZNA SETPOINT1 HEATINGS1 COOLINGS1 
*------------------------------------------------------------------------------

* Model "Supply air-2" (Type 33)
* 

*|*
*|* *** Model Supply air-2 (Type 33, Unit 114)
*|*
CONSTANTS 2
*|*PARAMETERS																							VALUES			UNITS
WETBULBM=1
*|Wet bulb mode                           |-|-|0|1|0|1.000|1000
ERRORMOD=2
*|Error mode                              |-|-|0|1|1|2.000|1000
CONSTANTS 1
*|*INPUTS																							VALUES			UNITS
PRESSURE=1
*|Pressure                                |atm|atm|0|1|0|1000000.00000|1000

UNIT 114 TYPE 33	 Supply air-2
*$UNIT_NAME Supply air-2
*$MODEL .\Physical Phenomena\Thermodynamic Properties\Psychrometrics\Dry Bulb and Humidity Ratio Known\Type33c.tmf
*$POSITION 2088 636
*$LAYER AHU1 # 
PARAMETERS 3
4		! 1 Psychrometrics mode
WETBULBM		! 2 Wet bulb mode
ERRORMOD		! 3 Error mode
INPUTS 3
86,2 		! callMatlab:T_out ->Dry bulb temp.
86,33 		! callMatlab:w_out ->Absolute humidity ratio
0,0		! [unconnected] Pressure
*** INITIAL INPUT VALUES
22.0 60.0 PRESSURE 
*------------------------------------------------------------------------------

* Model "Return air-2" (Type 33)
* 

*|*
*|* *** Model Return air-2 (Type 33, Unit 104)
*|*
CONSTANTS 2
*|*PARAMETERS																							VALUES			UNITS
WETBULBM1=1
*|Wet bulb mode                           |-|-|0|1|0|1.000|1000
ERRORMOD1=2
*|Error mode                              |-|-|0|1|1|2.000|1000
CONSTANTS 1
*|*INPUTS																							VALUES			UNITS
PRESSURE1=1
*|Pressure                                |atm|atm|0|1|0|1000000.00000|1000

UNIT 104 TYPE 33	 Return air-2
SUMMARIZE 104 "Return air-2"
*$UNIT_NAME Return air-2
*$MODEL .\Physical Phenomena\Thermodynamic Properties\Psychrometrics\Dry Bulb and Humidity Ratio Known\Type33c.tmf
*$POSITION 2474 562
*$LAYER AHU1 # 
PARAMETERS 3
4		! 1 Psychrometrics mode
WETBULBM1		! 2 Wet bulb mode
ERRORMOD1		! 3 Error mode
INPUTS 3
105,1 		! after zones mixer-2:Outlet Air Temperature ->Dry bulb temp.
105,2 		! after zones mixer-2:Outlet Air Humidity Ratio ->Absolute humidity ratio
0,0		! [unconnected] Pressure
*** INITIAL INPUT VALUES
22.0 0.006 PRESSURE1 
*------------------------------------------------------------------------------

* EQUATIONS "Reheat Signal to Power-1&2"
* 
EQUATIONS 2
heater_power1 = [106,2]*2000  
heater_power2 = [107,2]*2000  
*$UNIT_NAME Reheat Signal to Power-1&2
*$LAYER AHU1
*$POSITION 2639 340
*$UNIT_NUMBER 116

*------------------------------------------------------------------------------


* Model "AHU2 F&P Calculation" (Type 9318)
* 

*|*
*|* *** Model AHU2 F&P Calculation (Type 9318, Unit 73)
*|*
CONSTANTS 12
*|*PARAMETERS																							VALUES			UNITS
UPSTREAM=1
*|Upstream Pressure                       |inH2O|inH2O|0|1|-1000000.00000|1000000.00000|1000
DOWNSTRE=1
*|Downstream Pressure                     |inH2O|inH2O|0|1|-1000000.00000|1000000.00000|1000
FIT=399.5
*|fit1                                    |-|-|0|1|-1000000.00000|1000000.00000|1000
FIT1=-0.7322
*|fit2                                    |-|-|0|1|-1000000.00000|1000000.00000|1000
FIT2=-0.3988
*|fit3                                    |-|-|0|1|-1000000.00000|1000000.00000|1000
FIT3=0.0003191
*|fit4                                    |-|-|0|1|-1000000.00000|1000000.00000|1000
FIT4=0.0009687
*|fit5                                    |-|-|0|1|-1000000.00000|1000000.00000|1000
FIT5=-0.0001581
*|fit6                                    |-|-|0|1|-1000000.00000|1000000.00000|1000
FIT6=0.00000001078
*|fit7                                    |-|-|0|1|-1000000.00000|1000000.00000|1000
FIT7=0.0000004995
*|fit8                                    |-|-|0|1|-1000000.00000|1000000.00000|1000
FIT8=-0.000001334
*|fit9                                    |-|-|0|1|-1000000.00000|1000000.00000|1000
FIT9=0.0000007309
*|fit10                                   |-|-|0|1|-1000000.00000|1000000.00000|1000
CONSTANTS 3
*|*INPUTS																							VALUES			UNITS
DAMPER=0
*|Damper 1                                |% (base 1)|% (base 1)|0|1|-1000000.00000|1000000.00000|1000
DAMPER1=0
*|Damper 2                                |% (base 1)|% (base 1)|0|1|-1000000.00000|1000000.00000|1000
DAMPER2=0
*|Damper 5                                |% (base 1)|% (base 1)|0|1|-1000000.00000|1000000.00000|1000

UNIT 73 TYPE 9318	 AHU2 F&P Calculation
SUMMARIZE 73 "AHU2 F&P Calculation"
*$UNIT_NAME AHU2 F&P Calculation
*$MODEL \TRNSYS18\MyTypes\Airflow Calculation 9318.tmf
*$POSITION 2240 189
*$LAYER AHU1 # 
PARAMETERS 12
UPSTREAM		! 1 Upstream Pressure
DOWNSTRE		! 2 Downstream Pressure
FIT		! 3 fit1
FIT1		! 4 fit2
FIT2		! 5 fit3
FIT3		! 6 fit4
FIT4		! 7 fit5
FIT5		! 8 fit6
FIT6		! 9 fit7
FIT7		! 10 fit8
FIT8		! 11 fit9
FIT9		! 12 fit10
INPUTS 9
86,64 		! callMatlab:ahu2_vfd_rpm ->Fan Speed
0,0		! [unconnected] Damper 1
0,0		! [unconnected] Damper 2
106,1 		! Damper Position D15:Damper Setpoint Z1 ->Damper 15
107,1 		! Damper Position 16:Damper Setpoint Z2 ->Damper 16
0,0		! [unconnected] Damper 5
86,62 		! callMatlab:ahu2_vent_air ->F1
86,53 		! callMatlab:vav1_d_sp ->F5
86,54 		! callMatlab:vav2_d_sp ->F7
*** INITIAL INPUT VALUES
0 DAMPER DAMPER1 0 0 DAMPER2 460 300 300 
*------------------------------------------------------------------------------

* Model "RA mixer-2" (Type 648)
* 

*|*
*|* *** Model RA mixer-2 (Type 648, Unit 103)
*|*
CONSTANTS 2
*|*PARAMETERS																							VALUES			UNITS
HUMIDITY1=2
*|Humidity Mode                           |-|-|0|1|1|2.000|1000
NUMBEROF1=2
*|Number of Inlet Ports                   |-|-|0|1|1|100.000|1000
CONSTANTS 5
*|*INPUTS																							VALUES			UNITS
INLETAIR4=50.
*|Inlet Air % Relative Humidity-1         |% (base 100)|% (base 100)|0|1|0.|100.000|1000
INLETAIR5=1.
*|Inlet Air Pressure-1                    |atm|atm|0|1|0.|1000000.00000|1000
INLETAIR6=0.008
*|Inlet Air Humidity Ratio-2              |-|-|0|1|0.000|1000000.00000|1000
INLETAIR7=1.
*|Inlet Air Pressure-2                    |atm|atm|0|1|0.|1000000.00000|1000
AIRSIDEP1=0.0
*|Air-Side Pressure Drop                  |atm|atm|0|1|0.|1000000.00000|1000

UNIT 103 TYPE 648	 RA mixer-2
*$UNIT_NAME RA mixer-2
*$MODEL .\Hydronics Library (TESS)\Valves\Mixing Valve (100 Ports)\Air\Type648.tmf
*$POSITION 2002 500
*$LAYER AHU1 # 
*$# Return Plenum (Air Diverting Valve)
PARAMETERS 2
HUMIDITY1		! 1 Humidity Mode
NUMBEROF1		! 2 Number of Inlet Ports
INPUTS 11
114,7 		! Supply air-2:Dry bulb temperature ->Inlet Air Temperature-1
114,1 		! Supply air-2:Humidity ratio ->Inlet Air Humidity Ratio-1
0,0		! [unconnected] Inlet Air % Relative Humidity-1
Mass_Flow_SA2		! Mass Flow Conversions for air-2:Mass_Flow_SA2 ->Inlet Air Flowrate-1
0,0		! [unconnected] Inlet Air Pressure-1
104,7 		! Return air-2:Dry bulb temperature ->Inlet Air Temperature-2
0,0		! [unconnected] Inlet Air Humidity Ratio-2
104,6 		! Return air-2:Percent relative humidity  ->Inlet Air % Relative Humidity-2
Mass_Flow_RA2		! Mass Flow Conversions for air-2:Mass_Flow_RA2 ->Inlet Air Flowrate-2
0,0		! [unconnected] Inlet Air Pressure-2
0,0		! [unconnected] Air-Side Pressure Drop
*** INITIAL INPUT VALUES
20.0 0.008 INLETAIR4 1000.0 INLETAIR5 20.0 INLETAIR6 50. 1000.0 INLETAIR7
AIRSIDEP1 
*------------------------------------------------------------------------------

* EQUATIONS "Mass Flow Conversions for air-2"
* 
EQUATIONS 4
Mass_Flow_SA2 = ((60*1728*2.54*2.54*2.54)/(100*100*100))*[114,5]*[73,1]
Mass_Flow_VAV1 = ((60*1728*2.54*2.54*2.54)/(100*100*100))*[101,5]*[73,5]
Mass_Flow_VAV2 = ((60*1728*2.54*2.54*2.54)/(100*100*100))*[101,5]*[73,7]
Mass_Flow_RA2 = ((60*1728*2.54*2.54*2.54)/(100*100*100))*[104,5]*abs([73,11])
*$UNIT_NAME Mass Flow Conversions for air-2
*$LAYER AHU1
*$POSITION 2241 394
*$UNIT_NUMBER 83

*------------------------------------------------------------------------------


* Model "VAV1 heater D15" (Type 4455)
* 

*|*
*|* *** Model VAV1 heater D15 (Type 4455, Unit 80)
*|*
CONSTANTS 3
*|*PARAMETERS																							VALUES			UNITS
HEATERCA=1.28
*|Heater Capacitance                      |kJ/K|kJ/K|0|1|-1000000.00000|1000000.00000|1000
UA=48.12
*|UA                                      |kJ/hr.K|kJ/hr.K|0|1|-1000000.00000|1000000.00000|1000
AIRSPECI=1
*|air specific heat                       |kJ/kg|kJ/kg|0|1|-1000000.00000|1000000.00000|1000
CONSTANTS 1
*|*INPUTS																							VALUES			UNITS
PRESSURE2=1
*|Pressure                                |atm|atm|0|1|-1000000.00000|1000000.00000|1000
*|*DERIVATIVES																							VALUES			UNITS
CONSTANTS 1
INITIALC=22
*|Initial Coil Temperature                |C|C|0|1|-1000000.00000|1000000.00000|1000

UNIT 80 TYPE 4455	 VAV1 heater D15
SUMMARIZE 80 "VAV1 heater D15"
*$UNIT_NAME VAV1 heater D15
*$MODEL \TRNSYS18\MyTypes\NTU Electric Heater.tmf
*$POSITION 2642 222
*$LAYER AHU1 # 
PARAMETERS 3
HEATERCA		! 1 Heater Capacitance
UA		! 2 UA
AIRSPECI		! 3 air specific heat
INPUTS 5
Mass_Flow_VAV1		! Mass Flow Conversions for air-2:Mass_Flow_VAV1 ->Inlet air mass flow rate
102,3 		! AHU2 CC:Outlet air temperature ->Inlet air temperature
102,5 		! AHU2 CC:Outlet air relative humidity ->Inlet air relative humidity
heater_power1		! Reheat Signal to Power-1&2:heater_power1 ->Heater Power
0,0		! [unconnected] Pressure
*** INITIAL INPUT VALUES
600 22 0.5 50 PRESSURE2 
DERIVATIVES 1
INITIALC		! 1 Initial Coil Temperature
*------------------------------------------------------------------------------

* Model "VAV2 heater D16" (Type 4455)
* 

*|*
*|* *** Model VAV2 heater D16 (Type 4455, Unit 82)
*|*
CONSTANTS 3
*|*PARAMETERS																							VALUES			UNITS
HEATERCA1=1.28
*|Heater Capacitance                      |kJ/K|kJ/K|0|1|-1000000.00000|1000000.00000|1000
UA1=48.12
*|UA                                      |kJ/hr.K|kJ/hr.K|0|1|-1000000.00000|1000000.00000|1000
AIRSPECI1=1
*|air specific heat                       |kJ/kg|kJ/kg|0|1|-1000000.00000|1000000.00000|1000
CONSTANTS 1
*|*INPUTS																							VALUES			UNITS
PRESSURE3=1
*|Pressure                                |atm|atm|0|1|-1000000.00000|1000000.00000|1000
*|*DERIVATIVES																							VALUES			UNITS
CONSTANTS 1
INITIALC1=22
*|Initial Coil Temperature                |C|C|0|1|-1000000.00000|1000000.00000|1000

UNIT 82 TYPE 4455	 VAV2 heater D16
SUMMARIZE 82 "VAV2 heater D16"
*$UNIT_NAME VAV2 heater D16
*$MODEL \TRNSYS18\MyTypes\NTU Electric Heater.tmf
*$POSITION 2644 455
*$LAYER AHU1 # 
PARAMETERS 3
HEATERCA1		! 1 Heater Capacitance
UA1		! 2 UA
AIRSPECI1		! 3 air specific heat
INPUTS 5
Mass_Flow_VAV2		! Mass Flow Conversions for air-2:Mass_Flow_VAV2 ->Inlet air mass flow rate
102,3 		! AHU2 CC:Outlet air temperature ->Inlet air temperature
102,5 		! AHU2 CC:Outlet air relative humidity ->Inlet air relative humidity
heater_power2		! Reheat Signal to Power-1&2:heater_power2 ->Heater Power
0,0		! [unconnected] Pressure
*** INITIAL INPUT VALUES
600 22 0.5 50 PRESSURE3 
DERIVATIVES 1
INITIALC1		! 1 Initial Coil Temperature
*------------------------------------------------------------------------------

* Model "AHU2 preheater" (Type 4455)
* 

*|*
*|* *** Model AHU2 preheater (Type 4455, Unit 65)
*|*
CONSTANTS 3
*|*PARAMETERS																							VALUES			UNITS
HEATERCA2=20
*|Heater Capacitance                      |kJ/K|kJ/K|0|1|-1000000.00000|1000000.00000|1000
UA2=1100
*|UA                                      |kJ/hr.K|kJ/hr.K|0|1|-1000000.00000|1000000.00000|1000
AIRSPECI2=1
*|air specific heat                       |kJ/kg|kJ/kg|0|1|-1000000.00000|1000000.00000|1000
CONSTANTS 2
*|*INPUTS																							VALUES			UNITS
HEATERPO=0
*|Heater Power                            |W|W|0|1|-1000000.00000|1000000.00000|1000
PRESSURE4=1
*|Pressure                                |atm|atm|0|1|-1000000.00000|1000000.00000|1000
*|*DERIVATIVES																							VALUES			UNITS
CONSTANTS 1
INITIALC2=22
*|Initial Coil Temperature                |C|C|0|1|-1000000.00000|1000000.00000|1000

UNIT 65 TYPE 4455	 AHU2 preheater
*$UNIT_NAME AHU2 preheater
*$MODEL \TRNSYS18\MyTypes\NTU Electric Heater.tmf
*$POSITION 2182 508
*$LAYER AHU1 # 
PARAMETERS 3
HEATERCA2		! 1 Heater Capacitance
UA2		! 2 UA
AIRSPECI2		! 3 air specific heat
INPUTS 5
103,4 		! RA mixer-2:Outlet Air Flowrate ->Inlet air mass flow rate
103,1 		! RA mixer-2:Outlet Air Temperature ->Inlet air temperature
103,3 		! RA mixer-2:Outlet Air % Relative Humidity ->Inlet air relative humidity
0,0		! [unconnected] Heater Power
0,0		! [unconnected] Pressure
*** INITIAL INPUT VALUES
4800 20 30 HEATERPO PRESSURE4 
DERIVATIVES 1
INITIALC2		! 1 Initial Coil Temperature
*------------------------------------------------------------------------------

* Model "VAV1" (Type 33)
* 

*|*
*|* *** Model VAV1 (Type 33, Unit 100)
*|*
CONSTANTS 2
*|*PARAMETERS																							VALUES			UNITS
WETBULBM2=1
*|Wet bulb mode                           |-|-|0|1|0|1.000|1000
ERRORMOD2=2
*|Error mode                              |-|-|0|1|1|2.000|1000
CONSTANTS 1
*|*INPUTS																							VALUES			UNITS
PRESSURE5=1
*|Pressure                                |atm|atm|0|1|0|1000000.00000|1000

UNIT 100 TYPE 33	 VAV1
SUMMARIZE 100 "VAV1"
*$UNIT_NAME VAV1
*$MODEL .\Physical Phenomena\Thermodynamic Properties\Psychrometrics\Dry Bulb and Relative Humidity Known\Type33e.tmf
*$POSITION 2877 234
*$LAYER AHU1 # 
PARAMETERS 3
2		! 1 Psychrometrics mode
WETBULBM2		! 2 Wet bulb mode
ERRORMOD2		! 3 Error mode
INPUTS 3
80,2 		! VAV1 heater D15:Outlet Air Temperature ->Dry bulb temp.
80,5 		! VAV1 heater D15:Outlet Relative Humidity ->Percent relative humidity
0,0		! [unconnected] Pressure
*** INITIAL INPUT VALUES
22.0 60.0 PRESSURE5 
*------------------------------------------------------------------------------

* Model "VAV2" (Type 33)
* 

*|*
*|* *** Model VAV2 (Type 33, Unit 99)
*|*
CONSTANTS 2
*|*PARAMETERS																							VALUES			UNITS
WETBULBM3=1
*|Wet bulb mode                           |-|-|0|1|0|1.000|1000
ERRORMOD3=2
*|Error mode                              |-|-|0|1|1|2.000|1000
CONSTANTS 1
*|*INPUTS																							VALUES			UNITS
PRESSURE6=1
*|Pressure                                |atm|atm|0|1|0|1000000.00000|1000

UNIT 99 TYPE 33	 VAV2
SUMMARIZE 99 "VAV2"
*$UNIT_NAME VAV2
*$MODEL .\Physical Phenomena\Thermodynamic Properties\Psychrometrics\Dry Bulb and Relative Humidity Known\Type33e.tmf
*$POSITION 2888 431
*$LAYER AHU1 # 
PARAMETERS 3
2		! 1 Psychrometrics mode
WETBULBM3		! 2 Wet bulb mode
ERRORMOD3		! 3 Error mode
INPUTS 3
82,2 		! VAV2 heater D16:Outlet Air Temperature ->Dry bulb temp.
82,5 		! VAV2 heater D16:Outlet Relative Humidity ->Percent relative humidity
0,0		! [unconnected] Pressure
*** INITIAL INPUT VALUES
22.0 60.0 PRESSURE6 
*------------------------------------------------------------------------------

* Model "AHU2 CC" (Type 9898)
* 

*|*
*|* *** Model AHU2 CC (Type 9898, Unit 102)
*|*
CONSTANTS 4
*|*PARAMETERS																							VALUES			UNITS
HUMIDITY2=2
*|Humidity mode                           |-|-|0|1|1|2.000|1000
NUMBEROF2=1000
*|Number of sub timesteps                 |-|-|0|1|1|1000000.00000|1000
COILCAPA=6.4
*|Coil capacitance                        |kJ/K|kJ/K|0|1|0|1000000.00000|1000
LIQUIDSP=3.48
*|Liquid specific heat                    |kJ/kg.K|kJ/kg.K|0|1|0|1000000.00000|1000
CONSTANTS 8
*|*INPUTS																							VALUES			UNITS
INLETAIR8=0.005
*|Inlet air humidity ratio                |-|-|0|1|0|1000000.00000|1000
INLETAIR9=1
*|Inlet air pressure                      |atm|atm|0|1|0|1000000.00000|1000
AIRSIDEP2=0
*|Air side pressure drop                  |atm|atm|0|1|-1000000.00000|1000000.00000|1000
COILOVER=10566
*|Coil overall heat transfer coefficient  |kJ/hr.K|kJ/hr.K|0|1|0|1000000.00000|1000
COILBYPA=0.03
*|Coil bypass fraction                    |-|-|0|1|0|1.000|1000
LOWAIRFL=0
*|Low airflow UA                          |kJ/hr.K|kJ/hr.K|0|1|-1000000.00000|1000000.00000|1000
LOWCOOLA=0
*|Low coolant flow UA                     |kJ/hr.K|kJ/hr.K|0|1|-1000000.00000|1000000.00000|1000
HFAN=1.03
*|h_fan                                   |kJ/kg.K|kJ/kg.K|0|1|-1000000.00000|1000000.00000|1000
*|*DERIVATIVES																							VALUES			UNITS
CONSTANTS 1
COILINIT=22
*|Coil initial temperature                |C|C|0|1|-1000000.00000|1000000.00000|1000

UNIT 102 TYPE 9898	 AHU2 CC
*$UNIT_NAME AHU2 CC
*$MODEL \TRNSYS18\MyTypes\Type9898_cc.tmf
*$POSITION 1904 306
*$LAYER SL # AHU1 # 
*$# THERMALLY MASSIVE COOLING COIL
PARAMETERS 4
HUMIDITY2		! 1 Humidity mode
NUMBEROF2		! 2 Number of sub timesteps
COILCAPA		! 3 Coil capacitance
LIQUIDSP		! 4 Liquid specific heat
INPUTS 13
T_SL_in		! mass flow conversions for water:T_SL_in ->Inlet liquid temperature
ahu2_f_cc		! AHU2Conversion:ahu2_f_cc ->Inlet liquid flow rate
65,2 		! AHU2 preheater:Outlet Air Temperature ->Inlet air temperature
0,0		! [unconnected] Inlet air humidity ratio
65,5 		! AHU2 preheater:Outlet Relative Humidity ->Inlet air relative humidity
65,1 		! AHU2 preheater:Outlet Air flow ->Inlet air mass flow rate
0,0		! [unconnected] Inlet air pressure
0,0		! [unconnected] Air side pressure drop
0,0		! [unconnected] Coil overall heat transfer coefficient
0,0		! [unconnected] Coil bypass fraction
0,0		! [unconnected] Low airflow UA
0,0		! [unconnected] Low coolant flow UA
0,0		! [unconnected] h_fan
*** INITIAL INPUT VALUES
6 500 22 INLETAIR8 50. 0 INLETAIR9 AIRSIDEP2 COILOVER COILBYPA LOWAIRFL
LOWCOOLA HFAN 
DERIVATIVES 1
COILINIT		! 1 Coil initial temperature
*------------------------------------------------------------------------------

* Model "AHU2" (Type 33)
* 

*|*
*|* *** Model AHU2 (Type 33, Unit 101)
*|*
CONSTANTS 2
*|*PARAMETERS																							VALUES			UNITS
WETBULBM4=1
*|Wet bulb mode                           |-|-|0|1|0|1.000|1000
ERRORMOD4=2
*|Error mode                              |-|-|0|1|1|2.000|1000
CONSTANTS 1
*|*INPUTS																							VALUES			UNITS
PRESSURE7=1
*|Pressure                                |atm|atm|0|1|0|1000000.00000|1000

UNIT 101 TYPE 33	 AHU2
*$UNIT_NAME AHU2
*$MODEL .\Physical Phenomena\Thermodynamic Properties\Psychrometrics\Dry Bulb and Relative Humidity Known\Type33e.tmf
*$POSITION 2089 423
*$LAYER AHU1 # 
PARAMETERS 3
2		! 1 Psychrometrics mode
WETBULBM4		! 2 Wet bulb mode
ERRORMOD4		! 3 Error mode
INPUTS 3
102,3 		! AHU2 CC:Outlet air temperature ->Dry bulb temp.
102,5 		! AHU2 CC:Outlet air relative humidity ->Percent relative humidity
0,0		! [unconnected] Pressure
*** INITIAL INPUT VALUES
22.0 60.0 PRESSURE7 
*------------------------------------------------------------------------------

* Model "after zones mixer" (Type 648)
* 

*|*
*|* *** Model after zones mixer (Type 648, Unit 37)
*|*
CONSTANTS 2
*|*PARAMETERS																							VALUES			UNITS
HUMIDITY3=2
*|Humidity Mode                           |-|-|0|1|1|2.000|1000
NUMBEROF3=2
*|Number of Inlet Ports                   |-|-|0|1|1|100.000|1000
CONSTANTS 5
*|*INPUTS																							VALUES			UNITS
INLETAIR10=50.
*|Inlet Air % Relative Humidity-1         |% (base 100)|% (base 100)|0|1|0.|100.000|1000
INLETAIR11=1.
*|Inlet Air Pressure-1                    |atm|atm|0|1|0.|1000000.00000|1000
INLETAIR12=50.
*|Inlet Air % Relative Humidity-2         |% (base 100)|% (base 100)|0|1|0.|100.000|1000
INLETAIR13=1.
*|Inlet Air Pressure-2                    |atm|atm|0|1|0.|1000000.00000|1000
AIRSIDEP3=0.0
*|Air-Side Pressure Drop                  |atm|atm|0|1|0.|1000000.00000|1000

UNIT 37 TYPE 648	 after zones mixer
*$UNIT_NAME after zones mixer
*$MODEL .\Hydronics Library (TESS)\Valves\Mixing Valve (100 Ports)\Air\Type648.tmf
*$POSITION 2691 554
*$LAYER AHU1 # 
*$# Return Plenum (Air Diverting Valve)
PARAMETERS 2
HUMIDITY3		! 1 Humidity Mode
NUMBEROF3		! 2 Number of Inlet Ports
INPUTS 11
86,9 		! callMatlab:T_z1_ahu1 ->Inlet Air Temperature-1
86,11 		! callMatlab:w_z1_ahu1 ->Inlet Air Humidity Ratio-1
0,0		! [unconnected] Inlet Air % Relative Humidity-1
Mass_Flow_VAV3		! Mass Flow Conversions for air:Mass_Flow_VAV3 ->Inlet Air Flowrate-1
0,0		! [unconnected] Inlet Air Pressure-1
86,16 		! callMatlab:T_z2_ahu1 ->Inlet Air Temperature-2
86,18 		! callMatlab:w_z2_ahu1 ->Inlet Air Humidity Ratio-2
0,0		! [unconnected] Inlet Air % Relative Humidity-2
Mass_Flow_VAV4		! Mass Flow Conversions for air:Mass_Flow_VAV4 ->Inlet Air Flowrate-2
0,0		! [unconnected] Inlet Air Pressure-2
0,0		! [unconnected] Air-Side Pressure Drop
*** INITIAL INPUT VALUES
20.0 0.008 INLETAIR10 1000.0 INLETAIR11 20.0 0.008 INLETAIR12 1000.0
INLETAIR13 AIRSIDEP3 
*------------------------------------------------------------------------------

* Model "Damper Position D17" (Type 1915)
* 

*|*